Version 4
SHEET 1 880 680
WIRE 64 -176 -128 -176
WIRE 128 -176 64 -176
WIRE 272 -176 208 -176
WIRE 336 -176 272 -176
WIRE 464 -176 416 -176
WIRE 528 -176 464 -176
WIRE -128 -128 -128 -176
WIRE 272 -32 272 -176
WIRE 320 -32 272 -32
WIRE -128 -16 -128 -48
WIRE 464 -16 464 -176
WIRE 464 -16 384 -16
WIRE 64 0 64 -176
WIRE 128 0 64 0
WIRE 272 0 208 0
WIRE 320 0 272 0
WIRE 528 48 368 48
WIRE 272 96 272 0
WIRE 368 176 368 48
WIRE 384 176 368 176
WIRE 528 192 528 48
WIRE 528 192 448 192
WIRE 272 208 272 160
WIRE 384 208 272 208
WIRE 272 256 272 208
WIRE 272 352 272 336
WIRE 336 352 272 352
WIRE 400 352 384 352
WIRE 528 352 528 192
WIRE 528 352 400 352
WIRE 272 368 272 352
WIRE 272 480 272 448
FLAG 352 -48 +Vcc
IOPIN 352 -48 In
FLAG 352 16 -Vcc
IOPIN 352 16 In
FLAG -96 128 +Vcc
IOPIN -96 128 Out
FLAG 16 128 -Vcc
IOPIN 16 128 Out
FLAG 16 208 0
FLAG -96 208 0
FLAG -128 -16 0
FLAG 416 160 +Vcc
IOPIN 416 160 In
FLAG 416 224 -Vcc
IOPIN 416 224 In
FLAG 272 480 0
FLAG 528 -176 Vout
IOPIN 528 -176 Out
SYMBOL res 224 -192 R90
WINDOW 0 0 56 VBottom 2
WINDOW 3 32 56 VTop 2
SYMATTR InstName R1
SYMATTR Value 1.6k
SYMBOL res 432 -192 R90
WINDOW 0 0 56 VBottom 2
WINDOW 3 32 56 VTop 2
SYMATTR InstName R2
SYMATTR Value 1.6k
SYMBOL res 224 -16 R90
WINDOW 0 0 56 VBottom 2
WINDOW 3 32 56 VTop 2
SYMATTR InstName R3
SYMATTR Value 1.6k
SYMBOL cap 256 96 R0
SYMATTR InstName C1
SYMATTR Value 0.1µ
SYMBOL OpAmps\\opamp2 352 -80 R0
SYMATTR InstName U1
SYMATTR Value TL081
SYMBOL Misc\\battery -96 112 R0
WINDOW 123 0 0 Left 0
WINDOW 39 0 0 Left 0
SYMATTR InstName V1
SYMATTR Value 15
SYMBOL Misc\\battery 16 224 R180
WINDOW 0 24 104 Left 2
WINDOW 3 24 16 Left 2
WINDOW 123 0 0 Left 0
WINDOW 39 0 0 Left 0
SYMATTR InstName V2
SYMATTR Value 15
SYMBOL Misc\\signal -128 -144 R0
WINDOW 123 24 132 Left 2
WINDOW 39 0 0 Left 0
SYMATTR Value2 AC AC 1
SYMATTR InstName V3
SYMBOL OpAmps\\opamp2 416 128 R0
SYMATTR InstName U2
SYMATTR Value TL081
SYMBOL res 256 240 R0
SYMATTR InstName R4
SYMATTR Value 800
SYMBOL res 256 352 R0
SYMATTR InstName R5
SYMATTR Value 800
SYMBOL cap 400 336 R90
WINDOW 0 0 32 VBottom 2
WINDOW 3 32 32 VTop 2
SYMATTR InstName C2
SYMATTR Value 0.1µ
TEXT -112 272 Left 2 !.include TL081.301
TEXT -112 304 Left 2 !.ac dec 200 1 100k
