Version 4
SHEET 1 932 1576
WIRE 0 48 0 -16
WIRE 0 48 -128 48
WIRE 128 48 0 48
WIRE 400 48 400 0
WIRE -128 80 -128 48
WIRE -128 80 -240 80
WIRE 128 80 128 48
WIRE 256 80 128 80
WIRE -128 112 -128 80
WIRE 128 112 128 80
WIRE -240 160 -240 80
WIRE -192 160 -240 160
WIRE 256 160 256 80
WIRE 256 160 192 160
WIRE 400 240 400 128
WIRE -128 272 -128 208
WIRE -32 272 -128 272
WIRE 128 272 128 208
WIRE 128 272 32 272
WIRE 448 272 304 272
WIRE 128 304 128 272
WIRE 256 304 128 304
WIRE 304 304 304 272
WIRE 256 320 256 304
WIRE -128 336 -128 272
WIRE -96 336 -128 336
WIRE 128 336 128 304
WIRE 128 336 96 336
WIRE -128 368 -128 336
WIRE 256 368 -128 368
WIRE -128 384 -128 368
WIRE -128 384 -240 384
WIRE 128 384 128 336
WIRE 256 384 128 384
WIRE -128 400 -128 384
WIRE 128 400 128 384
WIRE -240 448 -240 384
WIRE -192 448 -240 448
WIRE 256 448 256 384
WIRE 256 448 192 448
WIRE 304 448 304 384
WIRE -128 528 -128 496
WIRE -32 528 -128 528
WIRE 128 528 128 496
WIRE 128 528 32 528
WIRE -128 576 -128 528
WIRE -128 576 -240 576
WIRE 128 576 128 528
WIRE 256 576 128 576
WIRE -128 624 -128 576
WIRE 128 624 128 576
WIRE -240 672 -240 576
WIRE -192 672 -240 672
WIRE 256 672 256 576
WIRE 256 672 192 672
WIRE -128 752 -128 720
WIRE -32 752 -128 752
WIRE 128 752 128 720
WIRE 128 752 32 752
WIRE -128 800 -128 752
WIRE -128 800 -240 800
WIRE 128 800 128 752
WIRE 256 800 128 800
WIRE -128 848 -128 800
WIRE 128 848 128 800
WIRE 448 864 448 272
WIRE -240 896 -240 800
WIRE -192 896 -240 896
WIRE 256 896 256 800
WIRE 256 896 192 896
WIRE -128 976 -128 944
WIRE -32 976 -128 976
WIRE 128 976 128 944
WIRE 128 976 32 976
WIRE -128 1040 -128 976
WIRE 128 1040 128 976
WIRE -192 1088 -480 1088
WIRE 256 1088 192 1088
WIRE 448 1088 448 928
WIRE 448 1088 256 1088
WIRE -480 1152 -480 1088
WIRE 256 1152 256 1088
WIRE -128 1168 -128 1136
WIRE 0 1168 -128 1168
WIRE 128 1168 128 1136
WIRE 128 1168 0 1168
WIRE -480 1312 -480 1232
WIRE 256 1312 256 1232
WIRE 256 1312 -480 1312
WIRE -480 1376 -480 1312
WIRE 0 1376 0 1168
WIRE -480 1520 -480 1456
WIRE 0 1520 0 1456
FLAG 400 0 +Vcc
IOPIN 400 0 Out
FLAG 400 240 0
FLAG 0 -16 +Vcc
IOPIN 0 -16 In
FLAG -96 336 V1
IOPIN -96 336 Out
FLAG 96 336 V2
IOPIN 96 336 Out
FLAG -480 1520 0
FLAG 0 1520 0
FLAG 304 448 0
SYMBOL e 304 288 R0
SYMATTR InstName E1
SYMATTR Value 10
SYMBOL npn -192 112 R0
SYMATTR InstName Q1
SYMATTR Value CA3083
SYMBOL npn 192 112 M0
SYMATTR InstName Q2
SYMATTR Value CA3083
SYMBOL Misc\\battery 400 32 R0
WINDOW 123 0 0 Left 0
WINDOW 39 0 0 Left 0
SYMATTR InstName V1
SYMATTR Value 12
SYMBOL cap 32 256 R90
WINDOW 0 0 32 VBottom 2
WINDOW 3 32 32 VTop 2
SYMATTR InstName C1
SYMATTR Value 47n
SYMBOL cap -32 544 R270
WINDOW 0 32 32 VTop 2
WINDOW 3 0 32 VBottom 2
SYMATTR InstName C2
SYMATTR Value 47n
SYMBOL cap -32 768 R270
WINDOW 0 32 32 VTop 2
WINDOW 3 0 32 VBottom 2
SYMATTR InstName C3
SYMATTR Value 47n
SYMBOL cap -32 992 R270
WINDOW 0 32 32 VTop 2
WINDOW 3 0 32 VBottom 2
SYMATTR InstName C4
SYMATTR Value 23.5n
SYMBOL cap 432 864 R0
SYMATTR InstName C6
SYMATTR Value 1
SYMBOL res 240 1136 R0
SYMATTR InstName R1
SYMATTR Value 3.3k
SYMBOL Misc\\signal -480 1136 R0
WINDOW 123 24 132 Left 2
WINDOW 39 0 0 Left 0
SYMATTR Value2 AC AC 1
SYMATTR InstName V5
SYMBOL Misc\\battery -480 1360 R0
WINDOW 123 0 0 Left 0
WINDOW 39 0 0 Left 0
SYMATTR InstName V6
SYMATTR Value 2
SYMBOL current 0 1376 R0
WINDOW 123 0 0 Left 0
WINDOW 39 0 0 Left 0
SYMATTR InstName I1
SYMATTR Value {If}
SYMBOL npn -192 400 R0
SYMATTR InstName Q3
SYMATTR Value CA3083
SYMBOL npn -192 624 R0
SYMATTR InstName Q4
SYMATTR Value CA3083
SYMBOL npn -192 848 R0
SYMATTR InstName Q5
SYMATTR Value CA3083
SYMBOL npn -192 1040 R0
SYMATTR InstName Q6
SYMATTR Value CA3083
SYMBOL npn 192 400 M0
SYMATTR InstName Q7
SYMATTR Value CA3083
SYMBOL npn 192 624 M0
SYMATTR InstName Q8
SYMATTR Value CA3083
SYMBOL npn 192 848 M0
SYMATTR InstName Q9
SYMATTR Value CA3083
SYMBOL npn 192 1040 M0
SYMATTR InstName Q10
SYMATTR Value CA3083
TEXT -512 1560 Left 2 !.ac dec 200 100 100k
TEXT -104 1560 Left 2 !.step param If list 10u 20u 50u 100u 200u 500u
