Version 4
SHEET 1 1304 1024
WIRE 32 -112 -32 -112
WIRE 160 -112 96 -112
WIRE 640 -112 576 -112
WIRE 768 -112 704 -112
WIRE -32 -32 -32 -112
WIRE 16 -32 -32 -32
WIRE 160 -32 160 -112
WIRE 160 -32 96 -32
WIRE 576 -32 576 -112
WIRE 624 -32 576 -32
WIRE 768 -32 768 -112
WIRE 768 -32 704 -32
WIRE 368 80 336 80
WIRE 480 80 448 80
WIRE 576 80 576 -32
WIRE 576 80 544 80
WIRE -240 112 -272 112
WIRE -128 112 -160 112
WIRE -32 112 -32 -32
WIRE -32 112 -64 112
WIRE 0 112 -32 112
WIRE 576 112 576 80
WIRE 608 112 576 112
WIRE 160 128 160 -32
WIRE 160 128 64 128
WIRE 336 128 336 80
WIRE 336 128 160 128
WIRE 768 128 768 -32
WIRE 768 128 672 128
WIRE 816 128 768 128
WIRE 0 144 -32 144
WIRE 608 144 576 144
WIRE 336 176 336 128
WIRE 416 176 336 176
WIRE 576 176 576 144
WIRE 576 176 496 176
WIRE 576 224 576 176
WIRE -272 320 -272 112
WIRE -272 320 -480 320
WIRE -144 320 -272 320
WIRE -32 320 -32 144
WIRE -32 320 -64 320
WIRE 16 320 -32 320
WIRE 144 320 96 320
WIRE 576 320 576 304
WIRE 576 320 528 320
WIRE 576 336 576 320
WIRE 144 352 144 320
WIRE 528 352 528 320
WIRE -480 384 -480 320
WIRE -32 384 -32 320
WIRE 192 384 -32 384
WIRE 416 432 288 432
WIRE 576 432 576 416
WIRE 576 432 496 432
WIRE 800 432 576 432
WIRE 32 448 -32 448
WIRE 160 448 96 448
WIRE 640 480 576 480
WIRE 768 480 704 480
WIRE -480 512 -480 464
WIRE -272 528 -272 320
WIRE -240 528 -272 528
WIRE -128 528 -160 528
WIRE -32 528 -32 448
WIRE -32 528 -64 528
WIRE 16 528 -32 528
WIRE 160 528 160 448
WIRE 160 528 96 528
WIRE 288 560 288 432
WIRE 368 560 288 560
WIRE 480 560 448 560
WIRE 576 560 576 480
WIRE 576 560 544 560
WIRE 656 560 576 560
WIRE 768 560 768 480
WIRE 768 560 736 560
WIRE -32 672 -32 528
WIRE 0 672 -32 672
WIRE 160 688 160 528
WIRE 160 688 64 688
WIRE 288 688 288 560
WIRE 288 688 160 688
WIRE 576 688 576 560
WIRE 608 688 576 688
WIRE 0 704 -32 704
WIRE 768 704 768 560
WIRE 768 704 672 704
WIRE 848 704 768 704
WIRE 608 720 576 720
WIRE -32 832 -32 704
WIRE 192 832 192 384
WIRE 192 832 -32 832
WIRE 576 832 576 720
WIRE 800 832 800 432
WIRE 800 832 576 832
FLAG 32 96 +Vcc
IOPIN 32 96 In
FLAG 32 160 -Vcc
IOPIN 32 160 In
FLAG -480 512 0
FLAG 32 656 +Vcc
IOPIN 32 656 In
FLAG 32 720 -Vcc
IOPIN 32 720 In
FLAG 848 704 Sine
IOPIN 848 704 Out
FLAG 816 128 Cosine
IOPIN 816 128 Out
FLAG -448 192 +Vcc
IOPIN -448 192 Out
FLAG -336 192 -Vcc
IOPIN -336 192 Out
FLAG -336 272 0
FLAG -448 272 0
FLAG 144 352 0
FLAG 640 96 +Vcc
IOPIN 640 96 In
FLAG 640 160 -Vcc
IOPIN 640 160 In
FLAG 640 672 +Vcc
IOPIN 640 672 In
FLAG 640 736 -Vcc
IOPIN 640 736 In
FLAG 528 352 0
SYMBOL OpAmps\\opamp2 32 64 R0
SYMATTR InstName U1
SYMATTR Value TL081
SYMBOL res 112 -48 R90
WINDOW 0 0 56 VBottom 2
WINDOW 3 32 56 VTop 2
SYMATTR InstName R3
SYMATTR Value 2.69Meg
SYMBOL Misc\\signal -480 368 R0
WINDOW 123 24 132 Left 2
WINDOW 39 0 0 Left 0
SYMATTR Value2 AC AC 1
SYMATTR InstName V1
SYMBOL res 112 304 R90
WINDOW 0 0 56 VBottom 2
WINDOW 3 32 56 VTop 2
SYMATTR InstName R6
SYMATTR Value 46k
SYMBOL res -48 304 R90
WINDOW 0 0 56 VBottom 2
WINDOW 3 32 56 VTop 2
SYMATTR InstName R8
SYMATTR Value 10k
SYMBOL Misc\\battery -448 176 R0
WINDOW 123 0 0 Left 0
WINDOW 39 0 0 Left 0
SYMATTR InstName V2
SYMATTR Value 15
SYMBOL Misc\\battery -336 288 R180
WINDOW 0 24 104 Left 2
WINDOW 3 24 16 Left 2
WINDOW 123 0 0 Left 0
WINDOW 39 0 0 Left 0
SYMATTR InstName V3
SYMATTR Value 15
SYMBOL cap -64 96 R90
WINDOW 0 0 32 VBottom 2
WINDOW 3 32 32 VTop 2
SYMATTR InstName C2
SYMATTR Value 0.1µ
SYMBOL res -144 96 R90
WINDOW 0 0 56 VBottom 2
WINDOW 3 32 56 VTop 2
SYMATTR InstName R2
SYMATTR Value 21.2k
SYMBOL cap 96 -128 R90
WINDOW 0 0 32 VBottom 2
WINDOW 3 32 32 VTop 2
SYMATTR InstName C7
SYMATTR Value 0.01µ
SYMBOL cap -64 512 R90
WINDOW 0 0 32 VBottom 2
WINDOW 3 32 32 VTop 2
SYMATTR InstName C8
SYMATTR Value 0.001µ
SYMBOL res -144 512 R90
WINDOW 0 0 56 VBottom 2
WINDOW 3 32 56 VTop 2
SYMATTR InstName R4
SYMATTR Value 6.28k
SYMBOL res 112 512 R90
WINDOW 0 0 56 VBottom 2
WINDOW 3 32 56 VTop 2
SYMATTR InstName R5
SYMATTR Value 798k
SYMBOL cap 96 432 R90
WINDOW 0 0 32 VBottom 2
WINDOW 3 32 32 VTop 2
SYMATTR InstName C3
SYMATTR Value 100p
SYMBOL OpAmps\\opamp2 640 64 R0
SYMATTR InstName U2
SYMATTR Value TL081
SYMBOL res 720 -48 R90
WINDOW 0 0 56 VBottom 2
WINDOW 3 32 56 VTop 2
SYMATTR InstName R1
SYMATTR Value 2.38Meg
SYMBOL cap 544 64 R90
WINDOW 0 0 32 VBottom 2
WINDOW 3 32 32 VTop 2
SYMATTR InstName C1
SYMATTR Value 0.1µ
SYMBOL res 464 64 R90
WINDOW 0 0 56 VBottom 2
WINDOW 3 32 56 VTop 2
SYMATTR InstName R7
SYMATTR Value 26.4k
SYMBOL res 512 160 R90
WINDOW 0 0 56 VBottom 2
WINDOW 3 32 56 VTop 2
SYMATTR InstName R11
SYMATTR Value 10k
SYMBOL res 752 544 R90
WINDOW 0 0 56 VBottom 2
WINDOW 3 32 56 VTop 2
SYMATTR InstName R9
SYMATTR Value 6.4Meg
SYMBOL cap 704 464 R90
WINDOW 0 0 32 VBottom 2
WINDOW 3 32 32 VTop 2
SYMATTR InstName C6
SYMATTR Value 0.001µ
SYMBOL cap 544 544 R90
WINDOW 0 0 32 VBottom 2
WINDOW 3 32 32 VTop 2
SYMATTR InstName C5
SYMATTR Value 0.01µ
SYMBOL res 464 544 R90
WINDOW 0 0 56 VBottom 2
WINDOW 3 32 56 VTop 2
SYMATTR InstName R10
SYMATTR Value 71k
SYMBOL res 512 416 R90
WINDOW 0 0 56 VBottom 2
WINDOW 3 32 56 VTop 2
SYMATTR InstName R12
SYMATTR Value 10k
SYMBOL res 560 208 R0
SYMATTR InstName R13
SYMATTR Value 45k
SYMBOL res 560 320 R0
SYMATTR InstName R14
SYMATTR Value 45k
SYMBOL cap 704 -128 R90
WINDOW 0 0 32 VBottom 2
WINDOW 3 32 32 VTop 2
SYMATTR InstName C4
SYMATTR Value 100p
SYMBOL OpAmps\\opamp2 32 624 R0
SYMATTR InstName U3
SYMATTR Value TL081
SYMBOL OpAmps\\opamp2 640 640 R0
SYMATTR InstName U4
SYMATTR Value TL081
TEXT -480 576 Left 2 !.include TL081.301
TEXT -480 544 Left 2 !.ac dec 200 1 100k
