Version 4
SHEET 1 880 680
WIRE 304 80 224 80
WIRE 480 80 384 80
WIRE 112 192 32 192
WIRE 224 192 224 80
WIRE 224 192 192 192
WIRE 256 192 224 192
WIRE 352 192 336 192
WIRE 384 192 352 192
WIRE 480 192 480 80
WIRE 480 192 448 192
WIRE 544 192 480 192
WIRE 224 208 224 192
WIRE 32 224 32 192
WIRE 352 272 352 192
WIRE 384 272 352 272
WIRE 224 288 224 272
WIRE 480 288 480 192
WIRE 480 288 448 288
WIRE 384 304 352 304
WIRE 352 336 352 304
FLAG 544 192 Vout
IOPIN 544 192 Out
FLAG 32 304 0
FLAG 224 288 0
FLAG 352 336 0
SYMBOL res 208 176 R90
WINDOW 0 0 56 VBottom 2
WINDOW 3 32 56 VTop 2
SYMATTR InstName R1
SYMATTR Value 1k
SYMBOL res 352 176 R90
WINDOW 0 0 56 VBottom 2
WINDOW 3 32 56 VTop 2
SYMATTR InstName R2
SYMATTR Value 1k
SYMBOL Misc\\signal 32 208 R0
WINDOW 123 24 132 Left 2
WINDOW 39 0 0 Left 0
SYMATTR Value2 AC AC 1
SYMATTR InstName V1
SYMBOL cap 208 208 R0
SYMATTR InstName C3
SYMATTR Value 0.02µ
SYMBOL res 400 64 R90
WINDOW 0 0 56 VBottom 2
WINDOW 3 32 56 VTop 2
SYMATTR InstName R3
SYMATTR Value 1k
SYMBOL OpAmps\\opamp 416 224 R0
SYMATTR InstName U1
SYMBOL cap 448 176 R90
WINDOW 0 0 32 VBottom 2
WINDOW 3 32 32 VTop 2
SYMATTR InstName C1
SYMATTR Value 0.02µ
TEXT 56 376 Left 2 !.ac dec 200 1 10k
TEXT 400 344 Left 2 !.inc opamp.sub
