Version 4
SHEET 1 1872 868
WIRE 448 -32 288 -32
WIRE 624 -32 448 -32
WIRE 1472 -32 704 -32
WIRE -176 32 -176 -16
WIRE 448 32 448 -32
WIRE 832 80 784 80
WIRE 960 80 896 80
WIRE 1344 96 1296 96
WIRE 1472 96 1472 -32
WIRE 1472 96 1408 96
WIRE 16 160 16 112
WIRE 288 160 288 -32
WIRE 320 160 288 160
WIRE -272 176 -384 176
WIRE -176 176 -176 112
WIRE -176 176 -208 176
WIRE -16 176 -176 176
WIRE 448 176 448 112
WIRE 448 176 384 176
WIRE 496 176 448 176
WIRE 656 176 608 176
WIRE 784 176 784 80
WIRE 784 176 736 176
WIRE 832 176 784 176
WIRE 96 192 48 192
WIRE 144 192 96 192
WIRE 272 192 224 192
WIRE 320 192 272 192
WIRE 960 192 960 80
WIRE 960 192 896 192
WIRE 1008 192 960 192
WIRE 1168 192 1120 192
WIRE 1296 192 1296 96
WIRE 1296 192 1248 192
WIRE 1344 192 1296 192
WIRE -16 208 -64 208
WIRE 832 208 784 208
WIRE 1472 208 1472 96
WIRE 1472 208 1408 208
WIRE 1504 208 1472 208
WIRE 1616 208 1568 208
WIRE 1344 224 1296 224
WIRE -384 240 -384 176
WIRE -176 240 -176 176
WIRE 1616 240 1616 208
WIRE 272 256 272 192
WIRE 368 256 272 256
WIRE 16 272 16 224
WIRE 448 272 448 176
WIRE 560 272 560 256
WIRE 560 272 448 272
WIRE 1760 288 1696 288
WIRE 960 304 960 192
WIRE 1072 304 1072 272
WIRE 1072 304 960 304
WIRE -64 336 -64 208
WIRE -32 336 -64 336
WIRE 96 336 96 192
WIRE 96 336 32 336
WIRE 272 336 272 256
WIRE 320 336 272 336
WIRE 464 336 432 336
WIRE 960 336 960 304
WIRE 960 336 544 336
WIRE -384 368 -384 320
WIRE -176 368 -176 320
WIRE 784 384 784 208
WIRE 1296 384 1296 224
WIRE 1616 384 1616 352
WIRE -64 416 -64 336
WIRE -32 416 -64 416
WIRE 96 416 96 336
WIRE 96 416 80 416
WIRE 176 448 176 416
WIRE 320 448 176 448
WIRE 448 448 320 448
WIRE 320 480 320 448
WIRE 448 480 448 448
WIRE -64 496 -64 416
WIRE 32 496 -64 496
WIRE -64 544 -64 496
WIRE 176 544 176 448
WIRE 320 592 320 560
WIRE 448 592 448 544
WIRE 448 592 320 592
WIRE 576 592 576 528
WIRE 576 592 448 592
WIRE 320 624 320 592
WIRE 448 624 448 592
WIRE -64 656 -64 624
WIRE 176 736 176 624
WIRE 320 736 320 704
WIRE 320 736 176 736
WIRE 448 736 448 688
WIRE 448 736 320 736
WIRE -64 768 -64 720
WIRE 176 768 176 736
FLAG -176 -16 +Vcc
IOPIN -176 -16 In
FLAG -176 368 0
FLAG 16 272 0
FLAG 16 112 +Vcc
IOPIN 16 112 In
FLAG -64 768 0
FLAG 784 384 Vbias
IOPIN 784 384 In
FLAG 1296 384 Vbias
IOPIN 1296 384 In
FLAG 1616 384 0
FLAG -384 368 0
FLAG 576 528 Vbias
IOPIN 576 528 Out
FLAG 176 768 0
FLAG 176 416 +Vcc
IOPIN 176 416 Out
FLAG 1760 288 Vout
IOPIN 1760 288 Out
SYMBOL OpAmps\\opamp 352 112 R0
SYMATTR InstName U1
SYMBOL OpAmps\\opamp2 16 128 R0
SYMATTR InstName U2
SYMATTR Value TL081
SYMBOL cap -208 160 R90
WINDOW 0 0 32 VBottom 2
WINDOW 3 32 32 VTop 2
SYMATTR InstName C1
SYMATTR Value 100n
SYMBOL res -192 16 R0
SYMATTR InstName R1
SYMATTR Value 1Meg
SYMBOL res -192 224 R0
SYMATTR InstName R2
SYMATTR Value 1Meg
SYMBOL cap 32 320 R90
WINDOW 0 0 32 VBottom 2
WINDOW 3 32 32 VTop 2
SYMATTR InstName C2
SYMATTR Value 22p
SYMBOL Misc\\battery 176 528 R0
WINDOW 123 0 0 Left 0
WINDOW 39 0 0 Left 0
SYMATTR InstName V1
SYMATTR Value 9
SYMBOL res -80 528 R0
SYMATTR InstName R3
SYMATTR Value 10k
SYMBOL res 240 176 R90
WINDOW 0 0 56 VBottom 2
WINDOW 3 32 56 VTop 2
SYMATTR InstName R4
SYMATTR Value 22k
SYMBOL cap -80 656 R0
SYMATTR InstName C3
SYMATTR Value 47µ
SYMBOL res 432 16 R0
SYMATTR InstName R5
SYMATTR Value 22k
SYMBOL res 720 -48 R90
WINDOW 0 0 56 VBottom 2
WINDOW 3 32 56 VTop 2
SYMATTR InstName R6
SYMATTR Value 22k
SYMBOL res 560 320 R90
WINDOW 0 0 56 VBottom 2
WINDOW 3 32 56 VTop 2
SYMATTR InstName R7
SYMATTR Value 22k
SYMBOL res 752 160 R90
WINDOW 0 0 56 VBottom 2
WINDOW 3 32 56 VTop 2
SYMATTR InstName R8
SYMATTR Value 3k3
SYMBOL res 1264 176 R90
WINDOW 0 0 56 VBottom 2
WINDOW 3 32 56 VTop 2
SYMATTR InstName R9
SYMATTR Value 3k3
SYMBOL OpAmps\\opamp 864 128 R0
SYMATTR InstName U3
SYMBOL cap 896 64 R90
WINDOW 0 0 32 VBottom 2
WINDOW 3 32 32 VTop 2
SYMATTR InstName C4
SYMATTR Value 10n
SYMBOL OpAmps\\opamp 1376 144 R0
SYMATTR InstName U4
SYMBOL cap 1408 80 R90
WINDOW 0 0 32 VBottom 2
WINDOW 3 32 32 VTop 2
SYMATTR InstName C5
SYMATTR Value 10n
SYMBOL cap 1568 192 R90
WINDOW 0 0 32 VBottom 2
WINDOW 3 32 32 VTop 2
SYMATTR InstName C6
SYMATTR Value 10µ
SYMBOL Misc\\signal -384 224 R0
WINDOW 123 24 132 Left 2
WINDOW 39 0 0 Left 0
SYMATTR Value2 AC AC 1
SYMATTR InstName V2
SYMBOL res 304 464 R0
SYMATTR InstName R10
SYMATTR Value 10k
SYMBOL res 304 608 R0
SYMATTR InstName R11
SYMATTR Value 10k
SYMBOL cap 432 480 R0
SYMATTR InstName C7
SYMATTR Value 47µ
SYMBOL cap 432 624 R0
SYMATTR InstName C8
SYMATTR Value 47µ
SYMBOL pot 336 352 R270
WINDOW 39 48 -28 Left 0
SYMATTR SpiceLine R=250K Val=50
SYMATTR InstName P1
SYMBOL pot 1104 176 R90
WINDOW 39 48 28 Left 0
SYMATTR SpiceLine R=50K Val=50
SYMATTR InstName P3
SYMBOL pot 592 160 R90
WINDOW 39 48 28 Left 0
SYMATTR SpiceLine R=50K Val=50
SYMATTR InstName P2
SYMBOL pot 1600 256 R0
WINDOW 39 48 28 Left 0
SYMATTR InstName P4
SYMBOL pot 64 400 R90
WINDOW 39 48 28 Left 0
SYMATTR SpiceLine R=100K Val=50
SYMATTR InstName TR1
TEXT -384 416 Left 2 !.ac dec 200 100 10k
TEXT -384 448 Left 2 !.inc opamp.sub
TEXT -384 480 Left 2 !.inc TL081.301
