Version 4
SHEET 1 2320 680
WIRE 1808 -160 1632 -160
WIRE 2096 -160 1872 -160
WIRE 1088 -144 912 -144
WIRE 1376 -144 1152 -144
WIRE 368 -128 192 -128
WIRE 656 -128 432 -128
WIRE 1744 -48 1728 -48
WIRE 1872 -48 1824 -48
WIRE 1936 -48 1872 -48
WIRE 2096 -48 2096 -160
WIRE 2096 -48 2016 -48
WIRE 1024 -32 1008 -32
WIRE 1152 -32 1104 -32
WIRE 1216 -32 1152 -32
WIRE 1376 -32 1376 -144
WIRE 1376 -32 1296 -32
WIRE 304 -16 288 -16
WIRE 432 -16 384 -16
WIRE 496 -16 432 -16
WIRE 656 -16 656 -128
WIRE 656 -16 576 -16
WIRE 1728 32 1728 -48
WIRE 1008 48 1008 -32
WIRE 288 64 288 -16
WIRE 1872 96 1872 -48
WIRE 1904 96 1872 96
WIRE 1152 112 1152 -32
WIRE 1184 112 1152 112
WIRE 2096 112 2096 -48
WIRE 2096 112 1968 112
WIRE 2208 112 2096 112
WIRE 432 128 432 -16
WIRE 464 128 432 128
WIRE 1376 128 1376 -32
WIRE 1376 128 1248 128
WIRE 1472 128 1376 128
WIRE 1632 128 1632 -160
WIRE 1632 128 1552 128
WIRE 1680 128 1632 128
WIRE 1872 128 1760 128
WIRE 1904 128 1872 128
WIRE 656 144 656 -16
WIRE 656 144 528 144
WIRE 752 144 656 144
WIRE 912 144 912 -144
WIRE 912 144 832 144
WIRE 960 144 912 144
WIRE 1152 144 1040 144
WIRE 1184 144 1152 144
WIRE 64 160 -112 160
WIRE 192 160 192 -128
WIRE 192 160 144 160
WIRE 240 160 192 160
WIRE 432 160 320 160
WIRE 464 160 432 160
WIRE -112 176 -112 160
WIRE 1872 176 1872 128
WIRE 1152 192 1152 144
WIRE 432 208 432 160
WIRE -112 272 -112 256
WIRE 1872 272 1872 240
WIRE 1152 288 1152 256
WIRE 432 304 432 272
FLAG 432 304 0
FLAG 288 64 0
FLAG -112 272 0
FLAG -96 32 0
FLAG 32 32 0
FLAG -96 -48 +Vcc
IOPIN -96 -48 Out
FLAG 32 -48 -Vcc
IOPIN 32 -48 Out
FLAG 496 112 +Vcc
IOPIN 496 112 In
FLAG 496 176 -Vcc
IOPIN 496 176 In
FLAG 1152 288 0
FLAG 1008 48 0
FLAG 1216 96 +Vcc
IOPIN 1216 96 In
FLAG 1216 160 -Vcc
IOPIN 1216 160 In
FLAG 1872 272 0
FLAG 1728 32 0
FLAG 1936 80 +Vcc
IOPIN 1936 80 In
FLAG 1936 144 -Vcc
IOPIN 1936 144 In
FLAG 2208 112 Vout
IOPIN 2208 112 Out
SYMBOL res 160 144 R90
WINDOW 0 0 56 VBottom 2
WINDOW 3 32 56 VTop 2
SYMATTR InstName R1
SYMATTR Value 12.6k
SYMBOL res 336 144 R90
WINDOW 0 0 56 VBottom 2
WINDOW 3 32 56 VTop 2
SYMATTR InstName R2
SYMATTR Value 12.6k
SYMBOL res 400 -32 R90
WINDOW 0 0 56 VBottom 2
WINDOW 3 32 56 VTop 2
SYMATTR InstName R3
SYMATTR Value 100k
SYMBOL res 592 -32 R90
WINDOW 0 0 56 VBottom 2
WINDOW 3 32 63 VTop 2
SYMATTR InstName R4
SYMATTR Value 89.1k
SYMBOL cap 432 -144 R90
WINDOW 0 0 32 VBottom 2
WINDOW 3 32 32 VTop 2
SYMATTR InstName C1
SYMATTR Value 0.01µ
SYMBOL cap 448 272 R180
WINDOW 0 24 56 Left 2
WINDOW 3 24 8 Left 2
SYMATTR InstName C2
SYMATTR Value 0.01µ
SYMBOL Misc\\signal -112 160 R0
WINDOW 123 24 132 Left 2
WINDOW 39 0 0 Left 0
SYMATTR Value2 AC AC 1
SYMATTR InstName V1
SYMBOL Misc\\battery -96 -64 R0
WINDOW 123 0 0 Left 0
WINDOW 39 0 0 Left 0
SYMATTR InstName V2
SYMATTR Value 15
SYMBOL Misc\\battery 32 48 R180
WINDOW 0 24 104 Left 2
WINDOW 3 24 16 Left 2
WINDOW 123 0 0 Left 0
WINDOW 39 0 0 Left 0
SYMATTR InstName V3
SYMATTR Value 15
SYMBOL res 1056 128 R90
WINDOW 0 0 56 VBottom 2
WINDOW 3 32 56 VTop 2
SYMATTR InstName R5
SYMATTR Value 61.8k
SYMBOL res 1120 -48 R90
WINDOW 0 0 56 VBottom 2
WINDOW 3 32 56 VTop 2
SYMATTR InstName R6
SYMATTR Value 10k
SYMBOL res 1312 -48 R90
WINDOW 0 0 56 VBottom 2
WINDOW 3 32 63 VTop 2
SYMATTR InstName R7
SYMATTR Value 16.5k
SYMBOL cap 1152 -160 R90
WINDOW 0 0 32 VBottom 2
WINDOW 3 32 32 VTop 2
SYMATTR InstName C3
SYMATTR Value 4.7n
SYMBOL cap 1168 256 R180
WINDOW 0 24 56 Left 2
WINDOW 3 24 8 Left 2
SYMATTR InstName C4
SYMATTR Value 4.7n
SYMBOL res 848 128 R90
WINDOW 0 0 56 VBottom 2
WINDOW 3 32 56 VTop 2
SYMATTR InstName R8
SYMATTR Value 61.8k
SYMBOL res 1568 112 R90
WINDOW 0 0 56 VBottom 2
WINDOW 3 32 56 VTop 2
SYMATTR InstName R9
SYMATTR Value 11.9k
SYMBOL res 1776 112 R90
WINDOW 0 0 56 VBottom 2
WINDOW 3 32 56 VTop 2
SYMATTR InstName R10
SYMATTR Value 11.9k
SYMBOL res 1840 -64 R90
WINDOW 0 0 56 VBottom 2
WINDOW 3 32 56 VTop 2
SYMATTR InstName R11
SYMATTR Value 10k
SYMBOL res 2032 -64 R90
WINDOW 0 0 56 VBottom 2
WINDOW 3 32 63 VTop 2
SYMATTR InstName R12
SYMATTR Value 19k
SYMBOL cap 1872 -176 R90
WINDOW 0 0 32 VBottom 2
WINDOW 3 32 32 VTop 2
SYMATTR InstName C5
SYMATTR Value 33n
SYMBOL cap 1888 240 R180
WINDOW 0 24 56 Left 2
WINDOW 3 24 8 Left 2
SYMATTR InstName C6
SYMATTR Value 33n
SYMBOL OpAmps\\opamp2 496 80 R0
SYMATTR InstName U1
SYMATTR Value TL081
SYMBOL OpAmps\\opamp2 1216 64 R0
SYMATTR InstName U2
SYMATTR Value TL081
SYMBOL OpAmps\\opamp2 1936 48 R0
SYMATTR InstName U3
SYMATTR Value TL081
TEXT -104 336 Left 2 !.ac dec 200 1 10k
TEXT -104 360 Left 2 !.include TL081.301
TEXT 1400 -504 Left 2 !.include TL081.301
