Version 4
SHEET 1 880 680
WIRE 16 144 -176 144
WIRE 80 144 16 144
WIRE 224 144 160 144
WIRE 288 144 224 144
WIRE 416 144 368 144
WIRE -176 192 -176 144
WIRE 224 288 224 144
WIRE 272 288 224 288
WIRE -176 304 -176 272
WIRE 416 304 416 144
WIRE 416 304 336 304
WIRE 480 304 416 304
WIRE 16 320 16 144
WIRE 80 320 16 320
WIRE 224 320 160 320
WIRE 272 320 224 320
WIRE 224 336 224 320
WIRE 224 416 224 400
WIRE 224 512 224 496
WIRE 224 608 224 592
FLAG 224 608 0
FLAG 480 304 Vout
IOPIN 480 304 Out
FLAG 304 272 +Vcc
IOPIN 304 272 In
FLAG 304 336 -Vcc
IOPIN 304 336 In
FLAG -144 448 +Vcc
IOPIN -144 448 Out
FLAG -32 448 -Vcc
IOPIN -32 448 Out
FLAG -32 528 0
FLAG -144 528 0
FLAG -176 304 0
SYMBOL res 176 128 R90
WINDOW 0 0 56 VBottom 2
WINDOW 3 32 56 VTop 2
SYMATTR InstName R1
SYMATTR Value 1.6k
SYMBOL res 384 128 R90
WINDOW 0 0 56 VBottom 2
WINDOW 3 32 56 VTop 2
SYMATTR InstName R2
SYMATTR Value 1.6k
SYMBOL res 176 304 R90
WINDOW 0 0 56 VBottom 2
WINDOW 3 32 56 VTop 2
SYMATTR InstName R3
SYMATTR Value 1.6k
SYMBOL res 240 512 R180
WINDOW 0 36 76 Left 2
WINDOW 3 36 40 Left 2
SYMATTR InstName R4
SYMATTR Value 1.6k
SYMBOL cap 208 336 R0
SYMATTR InstName C1
SYMATTR Value 0.1µ
SYMBOL ind 208 496 R0
SYMATTR InstName L1
SYMATTR Value 0.047
SYMBOL OpAmps\\opamp2 304 240 R0
SYMATTR InstName U1
SYMATTR Value TL081
SYMBOL Misc\\battery -144 432 R0
WINDOW 123 0 0 Left 0
WINDOW 39 0 0 Left 0
SYMATTR InstName V1
SYMATTR Value 15
SYMBOL Misc\\battery -32 544 R180
WINDOW 0 24 104 Left 2
WINDOW 3 24 16 Left 2
WINDOW 123 0 0 Left 0
WINDOW 39 0 0 Left 0
SYMATTR InstName V3
SYMATTR Value 15
SYMBOL Misc\\signal -176 176 R0
WINDOW 123 24 132 Left 2
WINDOW 39 0 0 Left 0
SYMATTR InstName V2
SYMATTR Value2 AC AC 1
TEXT -160 592 Left 2 !.include TL081.301
TEXT -160 624 Left 2 !.ac dec 200 1 100k
