Version 4
SHEET 1 2320 916
WIRE 1088 -144 912 -144
WIRE 1376 -144 1168 -144
WIRE 368 -128 192 -128
WIRE 656 -128 448 -128
WIRE 1024 -32 1008 -32
WIRE 1152 -32 1104 -32
WIRE 1216 -32 1152 -32
WIRE 1376 -32 1376 -144
WIRE 1376 -32 1296 -32
WIRE 304 -16 288 -16
WIRE 432 -16 384 -16
WIRE 496 -16 432 -16
WIRE 656 -16 656 -128
WIRE 656 -16 576 -16
WIRE -96 32 -272 32
WIRE 1008 48 1008 -32
WIRE 288 64 288 -16
WIRE 1152 112 1152 -32
WIRE 1184 112 1152 112
WIRE 432 128 432 -16
WIRE 464 128 432 128
WIRE 1376 128 1376 -32
WIRE 1376 128 1248 128
WIRE -272 144 -272 32
WIRE -224 144 -272 144
WIRE 656 144 656 -16
WIRE 656 144 528 144
WIRE 752 144 656 144
WIRE 912 144 912 -144
WIRE 912 144 816 144
WIRE 1008 144 912 144
WIRE 1152 144 1072 144
WIRE 1184 144 1152 144
WIRE -96 160 -96 32
WIRE -96 160 -160 160
WIRE 16 160 -96 160
WIRE 192 160 192 -128
WIRE 192 160 80 160
WIRE 288 160 192 160
WIRE 432 160 352 160
WIRE 464 160 432 160
WIRE -400 176 -560 176
WIRE -272 176 -336 176
WIRE -224 176 -272 176
WIRE 912 176 912 144
WIRE -560 192 -560 176
WIRE 192 192 192 160
WIRE 1152 192 1152 144
WIRE -272 208 -272 176
WIRE 432 208 432 160
WIRE -560 288 -560 272
WIRE 912 288 912 256
WIRE 1152 288 1152 256
WIRE 192 304 192 272
WIRE 432 304 432 272
WIRE -272 320 -272 288
WIRE 1376 368 1376 128
WIRE 1376 368 -32 368
WIRE 352 448 176 448
WIRE 640 448 432 448
WIRE 288 560 272 560
WIRE 416 560 368 560
WIRE 480 560 416 560
WIRE 640 560 640 448
WIRE 640 560 560 560
WIRE 272 640 272 560
WIRE 416 704 416 560
WIRE 448 704 416 704
WIRE 640 720 640 560
WIRE 640 720 512 720
WIRE 752 720 640 720
WIRE -32 736 -32 368
WIRE 48 736 -32 736
WIRE 176 736 176 448
WIRE 176 736 112 736
WIRE 272 736 176 736
WIRE 416 736 336 736
WIRE 448 736 416 736
WIRE 176 768 176 736
WIRE 416 784 416 736
WIRE 176 880 176 848
WIRE 416 880 416 848
FLAG 432 304 0
FLAG 288 64 0
FLAG -560 288 0
FLAG -400 608 0
FLAG -272 608 0
FLAG -400 528 +Vcc
IOPIN -400 528 Out
FLAG -272 528 -Vcc
IOPIN -272 528 Out
FLAG 496 112 +Vcc
IOPIN 496 112 In
FLAG 496 176 -Vcc
IOPIN 496 176 In
FLAG 1152 288 0
FLAG 1008 48 0
FLAG 1216 96 +Vcc
IOPIN 1216 96 In
FLAG 1216 160 -Vcc
IOPIN 1216 160 In
FLAG 416 880 0
FLAG 272 640 0
FLAG 480 688 +Vcc
IOPIN 480 688 In
FLAG 480 752 -Vcc
IOPIN 480 752 In
FLAG -192 128 +Vcc
IOPIN -192 128 In
FLAG -192 192 -Vcc
IOPIN -192 192 In
FLAG -272 320 0
FLAG 192 304 0
FLAG 912 288 0
FLAG 176 880 0
FLAG 752 720 Vout
IOPIN 752 720 Out
SYMBOL res 400 -32 R90
WINDOW 0 0 56 VBottom 2
WINDOW 3 32 56 VTop 2
SYMATTR InstName R3
SYMATTR Value 10k
SYMBOL res 592 -32 R90
WINDOW 0 0 56 VBottom 2
WINDOW 3 32 63 VTop 2
SYMATTR InstName R4
SYMATTR Value 12.1k
SYMBOL cap 448 272 R180
WINDOW 0 24 56 Left 2
WINDOW 3 24 8 Left 2
SYMATTR InstName C2
SYMATTR Value 0.02µ
SYMBOL Misc\\signal -560 176 R0
WINDOW 123 24 132 Left 2
WINDOW 39 0 0 Left 0
SYMATTR Value2 AC AC 1
SYMATTR InstName V1
SYMBOL Misc\\battery -400 512 R0
WINDOW 123 0 0 Left 0
WINDOW 39 0 0 Left 0
SYMATTR InstName V2
SYMATTR Value 15
SYMBOL Misc\\battery -272 624 R180
WINDOW 0 24 104 Left 2
WINDOW 3 24 16 Left 2
WINDOW 123 0 0 Left 0
WINDOW 39 0 0 Left 0
SYMATTR InstName V3
SYMATTR Value 15
SYMBOL res 1120 -48 R90
WINDOW 0 0 56 VBottom 2
WINDOW 3 32 56 VTop 2
SYMATTR InstName R6
SYMATTR Value 10k
SYMBOL res 1312 -48 R90
WINDOW 0 0 56 VBottom 2
WINDOW 3 32 63 VTop 2
SYMATTR InstName R7
SYMATTR Value 16.7k
SYMBOL cap 1168 256 R180
WINDOW 0 24 56 Left 2
WINDOW 3 24 8 Left 2
SYMATTR InstName C4
SYMATTR Value 0.02µ
SYMBOL res 384 544 R90
WINDOW 0 0 56 VBottom 2
WINDOW 3 32 56 VTop 2
SYMATTR InstName R11
SYMATTR Value 10k
SYMBOL res 576 544 R90
WINDOW 0 0 56 VBottom 2
WINDOW 3 32 63 VTop 2
SYMATTR InstName R12
SYMATTR Value 19.06k
SYMBOL cap 432 848 R180
WINDOW 0 24 56 Left 2
WINDOW 3 24 8 Left 2
SYMATTR InstName C6
SYMATTR Value 0.02µ
SYMBOL OpAmps\\opamp2 496 80 R0
SYMATTR InstName U1
SYMATTR Value TL081
SYMBOL OpAmps\\opamp2 1216 64 R0
SYMATTR InstName U2
SYMATTR Value TL081
SYMBOL OpAmps\\opamp2 480 656 R0
SYMATTR InstName U3
SYMATTR Value TL081
SYMBOL OpAmps\\opamp2 -192 96 R0
SYMATTR InstName U4
SYMATTR Value TL081
SYMBOL res 176 176 R0
SYMATTR InstName R14
SYMATTR Value 8.57k
SYMBOL res 896 160 R0
SYMATTR InstName R15
SYMATTR Value 14.38k
SYMBOL res 160 752 R0
SYMATTR InstName R16
SYMATTR Value 17.71k
SYMBOL res 464 -144 R90
WINDOW 0 0 56 VBottom 2
WINDOW 3 32 56 VTop 2
SYMATTR InstName R1
SYMATTR Value 8.57k
SYMBOL res 1184 -160 R90
WINDOW 0 0 56 VBottom 2
WINDOW 3 32 56 VTop 2
SYMATTR InstName R2
SYMATTR Value 14.38k
SYMBOL res 448 432 R90
WINDOW 0 0 56 VBottom 2
WINDOW 3 32 56 VTop 2
SYMATTR InstName R5
SYMATTR Value 17.71k
SYMBOL cap -336 160 R90
WINDOW 0 0 32 VBottom 2
WINDOW 3 32 32 VTop 2
SYMATTR InstName C1
SYMATTR Value 0.02µ
SYMBOL cap 80 144 R90
WINDOW 0 0 32 VBottom 2
WINDOW 3 32 32 VTop 2
SYMATTR InstName C3
SYMATTR Value 0.02µ
SYMBOL cap 352 144 R90
WINDOW 0 0 32 VBottom 2
WINDOW 3 32 32 VTop 2
SYMATTR InstName C5
SYMATTR Value 0.02µ
SYMBOL cap 336 720 R90
WINDOW 0 0 32 VBottom 2
WINDOW 3 32 32 VTop 2
SYMATTR InstName C8
SYMATTR Value 0.02µ
SYMBOL cap 1072 128 R90
WINDOW 0 0 32 VBottom 2
WINDOW 3 32 32 VTop 2
SYMATTR InstName C7
SYMATTR Value 0.02µ
SYMBOL cap 112 720 R90
WINDOW 0 0 32 VBottom 2
WINDOW 3 32 32 VTop 2
SYMATTR InstName C10
SYMATTR Value 0.02µ
SYMBOL res -288 192 R0
SYMATTR InstName R8
SYMATTR Value 3.76k
SYMBOL cap 816 128 R90
WINDOW 0 0 32 VBottom 2
WINDOW 3 32 32 VTop 2
SYMATTR InstName C9
SYMATTR Value 0.02µ
TEXT -544 344 Left 2 !.ac dec 200 1 10k
TEXT -544 376 Left 2 !.include TL081.301
