Version 4
SHEET 1 2336 1124
WIRE 1280 80 624 80
WIRE 1600 80 1360 80
WIRE 416 144 304 144
WIRE 528 144 480 144
WIRE 624 144 624 80
WIRE 624 144 608 144
WIRE 640 144 624 144
WIRE 816 144 720 144
WIRE 1088 144 1072 144
WIRE 1280 144 1152 144
WIRE 1424 144 1408 144
WIRE 1600 144 1600 80
WIRE 1600 144 1488 144
WIRE 304 192 304 144
WIRE 624 208 624 144
WIRE 688 208 624 208
WIRE 1072 208 1072 144
WIRE 1072 208 1024 208
WIRE 1136 208 1072 208
WIRE 1408 208 1408 144
WIRE 1408 208 1360 208
WIRE 1472 208 1408 208
WIRE 1856 208 1696 208
WIRE 816 224 816 144
WIRE 816 224 752 224
WIRE 1024 224 1024 208
WIRE 1280 224 1280 144
WIRE 1280 224 1200 224
WIRE 1360 224 1360 208
WIRE 1600 224 1600 144
WIRE 1600 224 1536 224
WIRE 1984 224 1920 224
WIRE 2032 224 1984 224
WIRE 2160 224 2096 224
WIRE 688 240 624 240
WIRE 1136 240 1072 240
WIRE 1472 240 1408 240
WIRE 1856 240 1792 240
WIRE 2096 256 2096 224
WIRE 576 272 496 272
WIRE 624 272 624 240
WIRE 624 272 576 272
WIRE 688 272 624 272
WIRE 1696 288 1696 208
WIRE 1776 288 1696 288
WIRE 1856 288 1776 288
WIRE 1888 288 1856 288
WIRE 1984 288 1984 224
WIRE 1984 288 1968 288
WIRE 624 304 624 272
WIRE 1072 304 1072 240
WIRE 1408 304 1408 240
WIRE 304 320 304 272
WIRE 496 320 496 272
WIRE 576 320 576 272
WIRE 1696 320 1696 288
WIRE 1776 320 1776 288
WIRE 1856 320 1856 288
WIRE 688 336 688 272
WIRE 736 336 688 336
WIRE 1600 336 1600 224
WIRE 1600 336 1568 336
WIRE 1600 368 1600 336
WIRE 2096 368 2096 336
WIRE 576 416 576 400
WIRE 624 416 624 368
WIRE 624 416 576 416
WIRE 688 416 688 336
WIRE 880 416 800 416
WIRE 1696 416 1696 400
WIRE 1696 416 1680 416
WIRE 624 496 624 416
WIRE 720 496 624 496
WIRE 928 496 800 496
WIRE 1024 496 1024 304
WIRE 1040 496 1024 496
WIRE 416 512 416 480
WIRE 416 512 384 512
WIRE 448 512 416 512
WIRE 496 512 496 400
WIRE 448 528 448 512
WIRE 1600 528 1600 480
WIRE 1040 544 1040 496
WIRE 1040 544 1008 544
WIRE 448 592 448 576
WIRE 448 592 384 592
WIRE 816 608 816 224
WIRE 848 608 816 608
WIRE 928 608 848 608
WIRE 624 624 624 496
WIRE 720 624 624 624
WIRE 928 624 800 624
WIRE 496 672 496 592
WIRE 624 672 624 624
WIRE 624 672 496 672
WIRE 1360 672 1360 304
WIRE 1360 672 1008 672
WIRE 880 736 880 416
WIRE 928 736 880 736
WIRE 976 736 928 736
WIRE 1280 736 1280 224
WIRE 1280 736 976 736
WIRE 848 752 848 608
WIRE 848 752 816 752
WIRE 976 752 976 736
WIRE 1008 752 976 752
WIRE 1776 768 1776 400
WIRE 1776 768 928 768
WIRE 848 800 848 752
WIRE 976 800 976 752
WIRE 928 848 928 768
WIRE 1856 848 1856 400
WIRE 1856 848 1056 848
WIRE 848 928 848 912
WIRE 912 928 848 928
WIRE 976 928 976 912
WIRE 976 928 912 928
WIRE 912 976 912 928
FLAG 304 320 0
FLAG 1408 304 0
FLAG 1072 304 0
FLAG 1600 528 0
FLAG 2096 368 0
FLAG 2160 224 Vout
IOPIN 2160 224 Out
FLAG 624 672 0
FLAG 1792 240 0
FLAG 912 976 0
FLAG 416 480 0
FLAG 816 752 HP
IOPIN 816 752 Out
FLAG 1008 752 BP
IOPIN 1008 752 Out
FLAG 1568 336 LP
IOPIN 1568 336 Out
SYMBOL res 1376 64 R90
WINDOW 0 0 56 VBottom 2
WINDOW 3 32 56 VTop 2
SYMATTR InstName R6
SYMATTR Value 100k
SYMBOL cap 1152 128 R90
WINDOW 0 0 32 VBottom 2
WINDOW 3 32 32 VTop 2
SYMATTR InstName C4
SYMATTR Value 0.01µ
SYMBOL cap 1488 128 R90
WINDOW 0 0 32 VBottom 2
WINDOW 3 32 32 VTop 2
SYMATTR InstName C5
SYMATTR Value 0.01µ
SYMBOL Misc\\signal 304 176 R0
WINDOW 123 24 132 Left 2
WINDOW 39 0 0 Left 0
SYMATTR Value2 AC AC 1
SYMATTR InstName V2
SYMBOL res 1376 320 R180
WINDOW 0 36 76 Left 2
WINDOW 3 36 40 Left 2
SYMATTR InstName R8
SYMATTR Value 1k
SYMBOL res 1040 320 R180
WINDOW 0 36 76 Left 2
WINDOW 3 36 40 Left 2
SYMATTR InstName R9
SYMATTR Value 1k
SYMBOL res 736 128 R90
WINDOW 0 0 56 VBottom 2
WINDOW 3 32 56 VTop 2
SYMATTR InstName R5
SYMATTR Value 100k
SYMBOL cap 608 304 R0
SYMATTR InstName C10
SYMATTR Value 68p
SYMBOL res 592 416 R180
WINDOW 0 36 76 Left 2
WINDOW 3 36 40 Left 2
SYMATTR InstName R7
SYMATTR Value 100k
SYMBOL res 512 416 R180
WINDOW 0 36 76 Left 2
WINDOW 3 36 40 Left 2
SYMATTR InstName R10
SYMATTR Value 12k
SYMBOL res 624 128 R90
WINDOW 0 0 56 VBottom 2
WINDOW 3 32 56 VTop 2
SYMATTR InstName R3
SYMATTR Value 100k
SYMBOL cap 480 128 R90
WINDOW 0 0 32 VBottom 2
WINDOW 3 32 32 VTop 2
SYMATTR InstName C1
SYMATTR Value 0.22µ
SYMBOL sw 496 496 R0
SYMATTR InstName S1
SYMATTR Value MYSW
SYMBOL voltage 384 608 R180
WINDOW 0 24 96 Left 2
WINDOW 3 24 16 Left 2
WINDOW 123 0 0 Left 0
WINDOW 39 0 0 Left 0
SYMATTR InstName V1
SYMATTR Value 9
SYMBOL res 1680 304 R0
SYMATTR InstName R4
SYMATTR Value 10k
SYMBOL res 1760 304 R0
SYMATTR InstName R11
SYMATTR Value 10k
SYMBOL res 1840 304 R0
SYMATTR InstName R12
SYMATTR Value 10k
SYMBOL pot 1584 384 R0
WINDOW 39 48 28 Left 0
SYMATTR InstName RV4
SYMBOL pot 960 816 R0
WINDOW 39 48 28 Left 0
SYMATTR InstName RV3
SYMBOL cap 2096 208 R90
WINDOW 0 0 32 VBottom 2
WINDOW 3 32 32 VTop 2
SYMATTR InstName C2
SYMATTR Value 10µ
SYMBOL res 1984 272 R90
WINDOW 0 0 56 VBottom 2
WINDOW 3 32 56 VTop 2
SYMATTR InstName R13
SYMATTR Value 33k
SYMBOL res 2080 240 R0
SYMATTR InstName R14
SYMATTR Value 10k
SYMBOL OpAmps\\opamp 720 160 R0
SYMATTR InstName U1
SYMBOL OpAmps\\opamp 1168 160 R0
SYMATTR InstName U2
SYMBOL OpAmps\\opamp 1504 160 R0
SYMATTR InstName U3
SYMBOL pot 704 432 R270
WINDOW 39 48 28 Left 0
SYMATTR SpiceLine R=1Meg Val=50
SYMATTR InstName RV1
SYMBOL res 816 480 R90
WINDOW 0 0 56 VBottom 2
WINDOW 3 32 56 VTop 2
SYMATTR InstName R15
SYMATTR Value 33
SYMBOL res 816 608 R90
WINDOW 0 0 56 VBottom 2
WINDOW 3 32 56 VTop 2
SYMATTR InstName R16
SYMATTR Value 33
SYMBOL pot 912 512 R0
WINDOW 39 48 28 Left 0
SYMATTR InstName RV5
SYMBOL pot 912 640 R0
WINDOW 39 48 28 Left 0
SYMATTR InstName RV6
SYMBOL OpAmps\\opamp 1888 160 R0
SYMATTR InstName U4
SYMBOL pot 832 816 R0
WINDOW 39 48 28 Left 0
SYMATTR InstName RV2
TEXT 1024 960 Left 2 !.ac dec 200 100 100k
TEXT 1024 936 Left 2 !.model MYSW SW(Ron=1 Roff=1Meg Vt=.5 Vh=-.4)
TEXT 1024 984 Left 2 !.inc opamp.sub
